*SPEF "IEEE 1481-1998"
*DESIGN "myiir"
*DATE "Tue Oct 27 09:14:30 2020"
*VENDOR "Cadence Design Systems, Inc."
*PROGRAM "Innovus"
*VERSION "17.11-s080_1"
*DESIGN_FLOW "COUPLING C" "PIN_CAP NONE" "NAME_SCOPE LOCAL"
*DIVIDER /
*DELIMITER :
*BUS_DELIMITER []
*T_UNIT 1 NS
*C_UNIT 1 PF
*R_UNIT 1 OHM
*L_UNIT 1 HENRY

// MMMC spef file for corner 'my_rc'

*NAME_MAP

*1 VIN
*2 CLK
*3 RST_n
*4 a1[7]
*5 a1[6]
*6 a1[5]
*7 a1[4]
*8 a1[3]
*9 a1[2]
*10 a1[1]
*11 a1[0]
*12 b0[7]
*13 b0[6]
*14 b0[5]
*15 b0[4]
*16 b0[3]
*17 b0[2]
*18 b0[1]
*19 b0[0]
*20 b1[7]
*21 b1[6]
*22 b1[5]
*23 b1[4]
*24 b1[3]
*25 b1[2]
*26 b1[1]
*27 b1[0]
*28 DIN[7]
*29 DIN[6]
*30 DIN[5]
*31 DIN[4]
*32 DIN[3]
*33 DIN[2]
*34 DIN[1]
*35 DIN[0]
*36 VOUT
*37 DOUT[7]
*38 DOUT[6]
*39 DOUT[5]
*40 DOUT[4]
*41 DOUT[3]
*42 DOUT[2]
*43 DOUT[1]
*44 DOUT[0]
*45 FE_OFN5_iir_inst_mult_56_n230
*46 FE_OFN4_iir_inst_mult_55_n230
*47 FE_OFN3_iir_inst_mult_55_n235
*48 FE_OFN2_iir_inst_mult_56_n235
*49 FE_OFN1_iir_inst_mult_56_n242
*50 FE_OFN0_iir_inst_mult_55_n242
*51 FE_DBTN1_RST_n
*52 FE_DBTN0_iir_inst_sw_0
*53 VIN_del
*54 iir_inst_n30
*55 iir_inst_n29
*56 iir_inst_n28
*57 iir_inst_n27
*58 iir_inst_n26
*59 iir_inst_n25
*60 iir_inst_n13
*61 iir_inst_n12
*62 iir_inst_n11
*63 iir_inst_n10
*64 iir_inst_n9
*65 iir_inst_n8
*66 iir_inst_n7
*67 iir_inst_n6
*68 iir_inst_n5
*69 iir_inst_n4
*70 iir_inst_n3
*71 iir_inst_n2
*72 iir_inst_n1
*73 iir_inst_N12
*74 iir_inst_N13
*75 iir_inst_N14
*76 iir_inst_N15
*77 iir_inst_N16
*78 iir_inst_N17
*79 iir_inst_N18
*80 iir_inst_N19
*81 iir_inst_N20
*82 iir_inst_N21
*83 iir_inst_N22
*84 iir_inst_N23
*85 iir_inst_N24
*86 iir_inst_N25
*87 iir_inst_N26
*88 iir_inst_N27
*89 iir_inst_fb_temp_10_
*90 iir_inst_fb_temp_11_
*91 iir_inst_fb_temp_12_
*92 iir_inst_fb_temp_13_
*93 iir_inst_fb_temp_14_
*94 iir_inst_fb_temp_15_
*95 iir_inst_fb_temp_7_
*96 iir_inst_fb_temp_8_
*97 iir_inst_fb_temp_9_
*98 iir_inst_ff_temp_10_
*99 iir_inst_ff_temp_11_
*100 iir_inst_ff_temp_12_
*101 iir_inst_ff_temp_13_
*102 iir_inst_ff_temp_14_
*103 iir_inst_ff_temp_7_
*104 iir_inst_ff_temp_8_
*105 iir_inst_ff_temp_9_
*106 iir_inst_y_no_ff_temp_10_
*107 iir_inst_y_no_ff_temp_11_
*108 iir_inst_y_no_ff_temp_12_
*109 iir_inst_y_no_ff_temp_13_
*110 iir_inst_y_no_ff_temp_14_
*111 iir_inst_y_no_ff_temp_7_
*112 iir_inst_y_no_ff_temp_8_
*113 iir_inst_y_no_ff_temp_9_
*114 iir_inst_n24
*115 iir_inst_n23
*116 iir_inst_n22
*117 iir_inst_n21
*118 iir_inst_n20
*119 iir_inst_n19
*120 iir_inst_n18
*121 iir_inst_n17
*122 iir_inst_n16
*123 iir_inst_n15
*124 iir_inst_n14
*125 iir_inst_mult_56_n289
*126 iir_inst_mult_56_n288
*127 iir_inst_mult_56_n287
*128 iir_inst_mult_56_n286
*129 iir_inst_mult_56_n285
*130 iir_inst_mult_56_n284
*131 iir_inst_mult_56_n283
*132 iir_inst_mult_56_n282
*133 iir_inst_mult_56_n281
*134 iir_inst_mult_56_n280
*135 iir_inst_mult_56_n279
*136 iir_inst_mult_56_n278
*137 iir_inst_mult_56_n277
*138 iir_inst_mult_56_n276
*139 iir_inst_mult_56_n275
*140 iir_inst_mult_56_n274
*141 iir_inst_mult_56_n273
*142 iir_inst_mult_56_n272
*143 iir_inst_mult_56_n271
*144 iir_inst_mult_56_n270
*145 iir_inst_mult_56_n269
*146 iir_inst_mult_56_n268
*147 iir_inst_mult_56_n267
*148 iir_inst_mult_56_n266
*149 iir_inst_mult_56_n265
*150 iir_inst_mult_56_n264
*151 iir_inst_mult_56_n263
*152 iir_inst_mult_56_n262
*153 iir_inst_mult_56_n261
*154 iir_inst_mult_56_n260
*155 iir_inst_mult_56_n259
*156 iir_inst_mult_56_n258
*157 iir_inst_mult_56_n257
*158 iir_inst_mult_56_n256
*159 iir_inst_mult_56_n255
*160 iir_inst_mult_56_n254
*161 iir_inst_mult_56_n253
*162 iir_inst_mult_56_n252
*163 iir_inst_mult_56_n251
*164 iir_inst_mult_56_n250
*165 iir_inst_mult_56_n249
*166 iir_inst_mult_56_n248
*167 iir_inst_mult_56_n247
*168 iir_inst_mult_56_n246
*169 iir_inst_mult_56_n245
*170 iir_inst_mult_56_n244
*171 iir_inst_mult_56_n243
*172 iir_inst_mult_56_n242
*173 iir_inst_mult_56_n241
*174 iir_inst_mult_56_n240
*175 iir_inst_mult_56_n239
*176 iir_inst_mult_56_n238
*177 iir_inst_mult_56_n237
*178 iir_inst_mult_56_n236
*179 iir_inst_mult_56_n235
*180 iir_inst_mult_56_n234
*181 iir_inst_mult_56_n233
*182 iir_inst_mult_56_n232
*183 iir_inst_mult_56_n231
*184 iir_inst_mult_56_n230
*185 iir_inst_mult_56_n229
*186 iir_inst_mult_56_n228
*187 iir_inst_mult_56_n227
*188 iir_inst_mult_56_n226
*189 iir_inst_mult_56_n225
*190 iir_inst_mult_56_n224
*191 iir_inst_mult_56_n223
*192 iir_inst_mult_56_n222
*193 iir_inst_mult_56_n220
*194 iir_inst_mult_56_n219
*195 iir_inst_mult_56_n218
*196 iir_inst_mult_56_n217
*197 iir_inst_mult_56_n216
*198 iir_inst_mult_56_n215
*199 iir_inst_mult_56_n214
*200 iir_inst_mult_56_n213
*201 iir_inst_mult_56_n212
*202 iir_inst_mult_56_n211
*203 iir_inst_mult_56_n210
*204 iir_inst_mult_56_n109
*205 iir_inst_mult_56_n108
*206 iir_inst_mult_56_n107
*207 iir_inst_mult_56_n106
*208 iir_inst_mult_56_n105
*209 iir_inst_mult_56_n104
*210 iir_inst_mult_56_n101
*211 iir_inst_mult_56_n100
*212 iir_inst_mult_56_n99
*213 iir_inst_mult_56_n98
*214 iir_inst_mult_56_n97
*215 iir_inst_mult_56_n96
*216 iir_inst_mult_56_n93
*217 iir_inst_mult_56_n92
*218 iir_inst_mult_56_n91
*219 iir_inst_mult_56_n90
*220 iir_inst_mult_56_n89
*221 iir_inst_mult_56_n88
*222 iir_inst_mult_56_n87
*223 iir_inst_mult_56_n86
*224 iir_inst_mult_56_n84
*225 iir_inst_mult_56_n83
*226 iir_inst_mult_56_n82
*227 iir_inst_mult_56_n80
*228 iir_inst_mult_56_n79
*229 iir_inst_mult_56_n78
*230 iir_inst_mult_56_n77
*231 iir_inst_mult_56_n73
*232 iir_inst_mult_56_n72
*233 iir_inst_mult_56_n61
*234 iir_inst_mult_56_n60
*235 iir_inst_mult_56_n59
*236 iir_inst_mult_56_n58
*237 iir_inst_mult_56_n57
*238 iir_inst_mult_56_n56
*239 iir_inst_mult_56_n55
*240 iir_inst_mult_56_n54
*241 iir_inst_mult_56_n53
*242 iir_inst_mult_56_n52
*243 iir_inst_mult_56_n51
*244 iir_inst_mult_56_n50
*245 iir_inst_mult_56_n49
*246 iir_inst_mult_56_n48
*247 iir_inst_mult_56_n47
*248 iir_inst_mult_56_n46
*249 iir_inst_mult_56_n45
*250 iir_inst_mult_56_n44
*251 iir_inst_mult_56_n43
*252 iir_inst_mult_56_n42
*253 iir_inst_mult_56_n41
*254 iir_inst_mult_56_n40
*255 iir_inst_mult_56_n39
*256 iir_inst_mult_56_n38
*257 iir_inst_mult_56_n37
*258 iir_inst_mult_56_n36
*259 iir_inst_mult_56_n35
*260 iir_inst_mult_56_n34
*261 iir_inst_mult_56_n33
*262 iir_inst_mult_56_n32
*263 iir_inst_mult_56_n30
*264 iir_inst_mult_56_n29
*265 iir_inst_mult_56_n28
*266 iir_inst_mult_56_n27
*267 iir_inst_mult_56_n26
*268 iir_inst_mult_56_n25
*269 iir_inst_mult_56_n24
*270 iir_inst_mult_56_n23
*271 iir_inst_mult_56_n22
*272 iir_inst_mult_56_n20
*273 iir_inst_mult_56_n19
*274 iir_inst_mult_56_n18
*275 iir_inst_mult_56_n17
*276 iir_inst_mult_56_n16
*277 iir_inst_mult_56_n8
*278 iir_inst_mult_56_n7
*279 iir_inst_mult_56_n6
*280 iir_inst_mult_56_n5
*281 iir_inst_mult_56_n4
*282 iir_inst_mult_56_n3
*283 iir_inst_mult_56_n2
*284 iir_inst_mult_55_n289
*285 iir_inst_mult_55_n288
*286 iir_inst_mult_55_n287
*287 iir_inst_mult_55_n286
*288 iir_inst_mult_55_n285
*289 iir_inst_mult_55_n284
*290 iir_inst_mult_55_n283
*291 iir_inst_mult_55_n282
*292 iir_inst_mult_55_n281
*293 iir_inst_mult_55_n280
*294 iir_inst_mult_55_n279
*295 iir_inst_mult_55_n278
*296 iir_inst_mult_55_n277
*297 iir_inst_mult_55_n276
*298 iir_inst_mult_55_n275
*299 iir_inst_mult_55_n274
*300 iir_inst_mult_55_n273
*301 iir_inst_mult_55_n272
*302 iir_inst_mult_55_n271
*303 iir_inst_mult_55_n270
*304 iir_inst_mult_55_n269
*305 iir_inst_mult_55_n268
*306 iir_inst_mult_55_n267
*307 iir_inst_mult_55_n266
*308 iir_inst_mult_55_n265
*309 iir_inst_mult_55_n264
*310 iir_inst_mult_55_n263
*311 iir_inst_mult_55_n262
*312 iir_inst_mult_55_n261
*313 iir_inst_mult_55_n260
*314 iir_inst_mult_55_n259
*315 iir_inst_mult_55_n258
*316 iir_inst_mult_55_n257
*317 iir_inst_mult_55_n256
*318 iir_inst_mult_55_n255
*319 iir_inst_mult_55_n254
*320 iir_inst_mult_55_n253
*321 iir_inst_mult_55_n252
*322 iir_inst_mult_55_n251
*323 iir_inst_mult_55_n250
*324 iir_inst_mult_55_n249
*325 iir_inst_mult_55_n248
*326 iir_inst_mult_55_n247
*327 iir_inst_mult_55_n246
*328 iir_inst_mult_55_n245
*329 iir_inst_mult_55_n244
*330 iir_inst_mult_55_n243
*331 iir_inst_mult_55_n242
*332 iir_inst_mult_55_n241
*333 iir_inst_mult_55_n240
*334 iir_inst_mult_55_n239
*335 iir_inst_mult_55_n238
*336 iir_inst_mult_55_n237
*337 iir_inst_mult_55_n236
*338 iir_inst_mult_55_n235
*339 iir_inst_mult_55_n234
*340 iir_inst_mult_55_n233
*341 iir_inst_mult_55_n232
*342 iir_inst_mult_55_n231
*343 iir_inst_mult_55_n230
*344 iir_inst_mult_55_n229
*345 iir_inst_mult_55_n228
*346 iir_inst_mult_55_n227
*347 iir_inst_mult_55_n226
*348 iir_inst_mult_55_n225
*349 iir_inst_mult_55_n224
*350 iir_inst_mult_55_n223
*351 iir_inst_mult_55_n222
*352 iir_inst_mult_55_n221
*353 iir_inst_mult_55_n220
*354 iir_inst_mult_55_n219
*355 iir_inst_mult_55_n218
*356 iir_inst_mult_55_n217
*357 iir_inst_mult_55_n216
*358 iir_inst_mult_55_n215
*359 iir_inst_mult_55_n214
*360 iir_inst_mult_55_n213
*361 iir_inst_mult_55_n212
*362 iir_inst_mult_55_n211
*363 iir_inst_mult_55_n210
*364 iir_inst_mult_55_n109
*365 iir_inst_mult_55_n108
*366 iir_inst_mult_55_n107
*367 iir_inst_mult_55_n106
*368 iir_inst_mult_55_n105
*369 iir_inst_mult_55_n104
*370 iir_inst_mult_55_n101
*371 iir_inst_mult_55_n100
*372 iir_inst_mult_55_n99
*373 iir_inst_mult_55_n98
*374 iir_inst_mult_55_n97
*375 iir_inst_mult_55_n96
*376 iir_inst_mult_55_n93
*377 iir_inst_mult_55_n92
*378 iir_inst_mult_55_n91
*379 iir_inst_mult_55_n90
*380 iir_inst_mult_55_n89
*381 iir_inst_mult_55_n88
*382 iir_inst_mult_55_n87
*383 iir_inst_mult_55_n86
*384 iir_inst_mult_55_n84
*385 iir_inst_mult_55_n83
*386 iir_inst_mult_55_n82
*387 iir_inst_mult_55_n80
*388 iir_inst_mult_55_n79
*389 iir_inst_mult_55_n78
*390 iir_inst_mult_55_n77
*391 iir_inst_mult_55_n73
*392 iir_inst_mult_55_n72
*393 iir_inst_mult_55_n61
*394 iir_inst_mult_55_n60
*395 iir_inst_mult_55_n59
*396 iir_inst_mult_55_n58
*397 iir_inst_mult_55_n57
*398 iir_inst_mult_55_n56
*399 iir_inst_mult_55_n55
*400 iir_inst_mult_55_n54
*401 iir_inst_mult_55_n53
*402 iir_inst_mult_55_n52
*403 iir_inst_mult_55_n51
*404 iir_inst_mult_55_n50
*405 iir_inst_mult_55_n49
*406 iir_inst_mult_55_n48
*407 iir_inst_mult_55_n47
*408 iir_inst_mult_55_n46
*409 iir_inst_mult_55_n45
*410 iir_inst_mult_55_n44
*411 iir_inst_mult_55_n43
*412 iir_inst_mult_55_n42
*413 iir_inst_mult_55_n41
*414 iir_inst_mult_55_n40
*415 iir_inst_mult_55_n39
*416 iir_inst_mult_55_n38
*417 iir_inst_mult_55_n37
*418 iir_inst_mult_55_n36
*419 iir_inst_mult_55_n35
*420 iir_inst_mult_55_n34
*421 iir_inst_mult_55_n33
*422 iir_inst_mult_55_n32
*423 iir_inst_mult_55_n30
*424 iir_inst_mult_55_n29
*425 iir_inst_mult_55_n28
*426 iir_inst_mult_55_n27
*427 iir_inst_mult_55_n26
*428 iir_inst_mult_55_n25
*429 iir_inst_mult_55_n24
*430 iir_inst_mult_55_n23
*431 iir_inst_mult_55_n22
*432 iir_inst_mult_55_n20
*433 iir_inst_mult_55_n19
*434 iir_inst_mult_55_n18
*435 iir_inst_mult_55_n17
*436 iir_inst_mult_55_n16
*437 iir_inst_mult_55_n8
*438 iir_inst_mult_55_n7
*439 iir_inst_mult_55_n6
*440 iir_inst_mult_55_n5
*441 iir_inst_mult_55_n4
*442 iir_inst_mult_55_n3
*443 iir_inst_mult_55_n2
*444 iir_inst_add_62_n2
*445 iir_inst_mult_54_n290
*446 iir_inst_mult_54_n289
*447 iir_inst_mult_54_n288
*448 iir_inst_mult_54_n287
*449 iir_inst_mult_54_n286
*450 iir_inst_mult_54_n285
*451 iir_inst_mult_54_n284
*452 iir_inst_mult_54_n283
*453 iir_inst_mult_54_n282
*454 iir_inst_mult_54_n281
*455 iir_inst_mult_54_n280
*456 iir_inst_mult_54_n279
*457 iir_inst_mult_54_n278
*458 iir_inst_mult_54_n277
*459 iir_inst_mult_54_n276
*460 iir_inst_mult_54_n275
*461 iir_inst_mult_54_n274
*462 iir_inst_mult_54_n273
*463 iir_inst_mult_54_n272
*464 iir_inst_mult_54_n271
*465 iir_inst_mult_54_n270
*466 iir_inst_mult_54_n269
*467 iir_inst_mult_54_n268
*468 iir_inst_mult_54_n267
*469 iir_inst_mult_54_n266
*470 iir_inst_mult_54_n265
*471 iir_inst_mult_54_n264
*472 iir_inst_mult_54_n263
*473 iir_inst_mult_54_n262
*474 iir_inst_mult_54_n261
*475 iir_inst_mult_54_n260
*476 iir_inst_mult_54_n259
*477 iir_inst_mult_54_n258
*478 iir_inst_mult_54_n257
*479 iir_inst_mult_54_n256
*480 iir_inst_mult_54_n255
*481 iir_inst_mult_54_n254
*482 iir_inst_mult_54_n253
*483 iir_inst_mult_54_n252
*484 iir_inst_mult_54_n251
*485 iir_inst_mult_54_n250
*486 iir_inst_mult_54_n249
*487 iir_inst_mult_54_n248
*488 iir_inst_mult_54_n247
*489 iir_inst_mult_54_n246
*490 iir_inst_mult_54_n245
*491 iir_inst_mult_54_n244
*492 iir_inst_mult_54_n243
*493 iir_inst_mult_54_n242
*494 iir_inst_mult_54_n241
*495 iir_inst_mult_54_n240
*496 iir_inst_mult_54_n239
*497 iir_inst_mult_54_n238
*498 iir_inst_mult_54_n237
*499 iir_inst_mult_54_n236
*500 iir_inst_mult_54_n235
*501 iir_inst_mult_54_n234
*502 iir_inst_mult_54_n233
*503 iir_inst_mult_54_n232
*504 iir_inst_mult_54_n231
*505 iir_inst_mult_54_n230
*506 iir_inst_mult_54_n229
*507 iir_inst_mult_54_n227
*508 iir_inst_mult_54_n226
*509 iir_inst_mult_54_n225
*510 iir_inst_mult_54_n224
*511 iir_inst_mult_54_n223
*512 iir_inst_mult_54_n222
*513 iir_inst_mult_54_n115
*514 iir_inst_mult_54_n114
*515 iir_inst_mult_54_n113
*516 iir_inst_mult_54_n112
*517 iir_inst_mult_54_n111
*518 iir_inst_mult_54_n110
*519 iir_inst_mult_54_n109
*520 iir_inst_mult_54_n108
*521 iir_inst_mult_54_n106
*522 iir_inst_mult_54_n105
*523 iir_inst_mult_54_n104
*524 iir_inst_mult_54_n103
*525 iir_inst_mult_54_n102
*526 iir_inst_mult_54_n101
*527 iir_inst_mult_54_n100
*528 iir_inst_mult_54_n97
*529 iir_inst_mult_54_n96
*530 iir_inst_mult_54_n95
*531 iir_inst_mult_54_n94
*532 iir_inst_mult_54_n93
*533 iir_inst_mult_54_n92
*534 iir_inst_mult_54_n91
*535 iir_inst_mult_54_n90
*536 iir_inst_mult_54_n88
*537 iir_inst_mult_54_n87
*538 iir_inst_mult_54_n86
*539 iir_inst_mult_54_n84
*540 iir_inst_mult_54_n83
*541 iir_inst_mult_54_n82
*542 iir_inst_mult_54_n81
*543 iir_inst_mult_54_n79
*544 iir_inst_mult_54_n78
*545 iir_inst_mult_54_n77
*546 iir_inst_mult_54_n76
*547 iir_inst_mult_54_n63
*548 iir_inst_mult_54_n62
*549 iir_inst_mult_54_n61
*550 iir_inst_mult_54_n60
*551 iir_inst_mult_54_n59
*552 iir_inst_mult_54_n58
*553 iir_inst_mult_54_n57
*554 iir_inst_mult_54_n56
*555 iir_inst_mult_54_n55
*556 iir_inst_mult_54_n54
*557 iir_inst_mult_54_n53
*558 iir_inst_mult_54_n52
*559 iir_inst_mult_54_n51
*560 iir_inst_mult_54_n50
*561 iir_inst_mult_54_n49
*562 iir_inst_mult_54_n48
*563 iir_inst_mult_54_n47
*564 iir_inst_mult_54_n46
*565 iir_inst_mult_54_n45
*566 iir_inst_mult_54_n44
*567 iir_inst_mult_54_n43
*568 iir_inst_mult_54_n42
*569 iir_inst_mult_54_n41
*570 iir_inst_mult_54_n40
*571 iir_inst_mult_54_n39
*572 iir_inst_mult_54_n38
*573 iir_inst_mult_54_n37
*574 iir_inst_mult_54_n36
*575 iir_inst_mult_54_n35
*576 iir_inst_mult_54_n34
*577 iir_inst_mult_54_n32
*578 iir_inst_mult_54_n31
*579 iir_inst_mult_54_n30
*580 iir_inst_mult_54_n29
*581 iir_inst_mult_54_n28
*582 iir_inst_mult_54_n27
*583 iir_inst_mult_54_n26
*584 iir_inst_mult_54_n25
*585 iir_inst_mult_54_n24
*586 iir_inst_mult_54_n22
*587 iir_inst_mult_54_n21
*588 iir_inst_mult_54_n20
*589 iir_inst_mult_54_n19
*590 iir_inst_mult_54_n18
*591 iir_inst_mult_54_n17
*592 iir_inst_mult_54_n15
*593 iir_inst_mult_54_n14
*594 iir_inst_mult_54_n13
*595 iir_inst_mult_54_n12
*596 iir_inst_mult_54_n11
*597 iir_inst_mult_54_n10
*598 iir_inst_mult_54_n9
*599 iir_inst_mult_54_n8
*600 iir_inst_mult_54_n7
*601 iir_inst_mult_54_n6
*602 iir_inst_mult_54_n5
*603 iir_inst_mult_54_n4
*604 iir_inst_mult_54_n3
*605 iir_inst_mult_54_n2
*606 iir_inst_add_53_n1
*607 my_ff2_inst_N2
*608 reg_file1_inst_n8
*609 reg_file1_inst_n7
*610 reg_file1_inst_n6
*611 reg_file1_inst_n5
*612 reg_file1_inst_n4
*613 reg_file1_inst_n3
*614 reg_file1_inst_n2
*615 reg_file1_inst_n1
*616 reg_file1_inst_n19
*617 reg_file1_inst_n18
*618 reg_file1_inst_n17
*619 reg_file1_inst_n16
*620 reg_file1_inst_n15
*621 reg_file1_inst_n14
*622 reg_file1_inst_n13
*623 reg_file1_inst_n12
*624 reg_file1_inst_n11
*625 reg_file1_inst_n10
*626 reg_file2_inst_n29
*627 reg_file2_inst_n28
*628 reg_file2_inst_n27
*629 reg_file2_inst_n26
*630 reg_file2_inst_n25
*631 reg_file2_inst_n24
*632 reg_file2_inst_n23
*633 reg_file2_inst_n22
*634 reg_file2_inst_n21
*635 reg_file2_inst_n20
*636 reg_file2_inst_n8
*637 reg_file2_inst_n7
*638 reg_file2_inst_n6
*639 reg_file2_inst_n5
*640 reg_file2_inst_n4
*641 reg_file2_inst_n3
*642 reg_file2_inst_n2
*643 reg_file2_inst_n1
*644 my_ff1_inst_N2
*645 IIR_in[7]
*646 IIR_in[6]
*647 IIR_in[5]
*648 IIR_in[4]
*649 IIR_in[3]
*650 IIR_in[2]
*651 IIR_in[1]
*652 IIR_in[0]
*653 IIR_out[7]
*654 IIR_out[6]
*655 IIR_out[5]
*656 IIR_out[4]
*657 IIR_out[3]
*658 IIR_out[2]
*659 IIR_out[1]
*660 IIR_out[0]
*661 iir_inst_sub_54_carry[7]
*662 iir_inst_sub_54_carry[8]
*663 iir_inst_sub_54_carry[9]
*664 iir_inst_sub_54_carry[10]
*665 iir_inst_sub_54_carry[11]
*666 iir_inst_sub_54_carry[12]
*667 iir_inst_sub_54_carry[13]
*668 iir_inst_sub_54_carry[14]
*669 iir_inst_w[8]
*670 iir_inst_w[7]
*671 iir_inst_w[6]
*672 iir_inst_w[5]
*673 iir_inst_w[4]
*674 iir_inst_w[3]
*675 iir_inst_w[2]
*676 iir_inst_w[1]
*677 iir_inst_w[0]
*678 iir_inst_sw[8]
*679 iir_inst_sw[7]
*680 iir_inst_sw[6]
*681 iir_inst_sw[5]
*682 iir_inst_sw[4]
*683 iir_inst_sw[3]
*684 iir_inst_sw[2]
*685 iir_inst_sw[1]
*686 iir_inst_sw[0]
*687 iir_inst_add_62_carry[7]
*688 iir_inst_add_62_carry[6]
*689 iir_inst_add_62_carry[5]
*690 iir_inst_add_62_carry[4]
*691 iir_inst_add_62_carry[3]
*692 iir_inst_add_62_carry[2]
*693 iir_inst_add_53_carry[8]
*694 iir_inst_add_53_carry[7]
*695 iir_inst_add_53_carry[6]
*696 iir_inst_add_53_carry[5]
*697 iir_inst_add_53_carry[4]
*698 iir_inst_add_53_carry[3]
*699 iir_inst_add_53_carry[2]
*700 FE_OFC5_iir_inst_mult_56_n230
*701 FE_OFC4_iir_inst_mult_55_n230
*702 FE_OFC3_iir_inst_mult_55_n235
*703 FE_OFC2_iir_inst_mult_56_n235
*704 FE_OFC1_iir_inst_mult_56_n242
*705 FE_OFC0_iir_inst_mult_55_n242
*706 FE_RC_8_0
*707 FE_RC_7_0
*708 FE_RC_6_0
*709 FE_RC_5_0
*710 FE_RC_4_0
*711 FE_RC_3_0
*712 FE_RC_2_0
*713 FE_RC_1_0
*714 FE_RC_0_0
*715 FE_DBTC1_RST_n
*716 FE_DBTC0_iir_inst_sw_0
*717 iir_inst_U50
*718 iir_inst_U49
*719 iir_inst_U48
*720 iir_inst_U47
*721 iir_inst_U46
*722 iir_inst_U45
*723 iir_inst_U44
*724 iir_inst_U43
*725 iir_inst_U42
*726 iir_inst_U41
*727 iir_inst_U40
*728 iir_inst_U39
*729 iir_inst_U38
*730 iir_inst_U37
*731 iir_inst_U36
*732 iir_inst_U35
*733 iir_inst_U34
*734 iir_inst_U32
*735 iir_inst_U31
*736 iir_inst_U30
*737 iir_inst_U29
*738 iir_inst_U28
*739 iir_inst_U27
*740 iir_inst_U26
*741 iir_inst_U25
*742 iir_inst_U24
*743 iir_inst_U23
*744 iir_inst_U22
*745 iir_inst_U21
*746 iir_inst_U20
*747 iir_inst_U19
*748 iir_inst_U18
*749 iir_inst_U17
*750 iir_inst_U16
*751 iir_inst_U15
*752 iir_inst_U14
*753 iir_inst_U13
*754 iir_inst_U12
*755 iir_inst_U11
*756 iir_inst_U10
*757 iir_inst_U9
*758 iir_inst_U8
*759 iir_inst_U7
*760 iir_inst_U6
*761 iir_inst_U5
*762 iir_inst_U4
*763 iir_inst_U3
*764 iir_inst_sw_reg_0_
*765 iir_inst_sw_reg_1_
*766 iir_inst_sw_reg_2_
*767 iir_inst_sw_reg_3_
*768 iir_inst_sw_reg_4_
*769 iir_inst_sw_reg_5_
*770 iir_inst_sw_reg_6_
*771 iir_inst_sw_reg_7_
*772 iir_inst_sw_reg_8_
*773 iir_inst_mult_56_U277
*774 iir_inst_mult_56_U276
*775 iir_inst_mult_56_U275
*776 iir_inst_mult_56_U274
*777 iir_inst_mult_56_U273
*778 iir_inst_mult_56_U272
*779 iir_inst_mult_56_U271
*780 iir_inst_mult_56_U270
*781 iir_inst_mult_56_U269
*782 iir_inst_mult_56_U267
*783 iir_inst_mult_56_U266
*784 iir_inst_mult_56_U265
*785 iir_inst_mult_56_U264
*786 iir_inst_mult_56_U263
*787 iir_inst_mult_56_U262
*788 iir_inst_mult_56_U261
*789 iir_inst_mult_56_U260
*790 iir_inst_mult_56_U259
*791 iir_inst_mult_56_U258
*792 iir_inst_mult_56_U257
*793 iir_inst_mult_56_U256
*794 iir_inst_mult_56_U255
*795 iir_inst_mult_56_U254
*796 iir_inst_mult_56_U253
*797 iir_inst_mult_56_U252
*798 iir_inst_mult_56_U251
*799 iir_inst_mult_56_U250
*800 iir_inst_mult_56_U249
*801 iir_inst_mult_56_U248
*802 iir_inst_mult_56_U247
*803 iir_inst_mult_56_U246
*804 iir_inst_mult_56_U245
*805 iir_inst_mult_56_U244
*806 iir_inst_mult_56_U243
*807 iir_inst_mult_56_U242
*808 iir_inst_mult_56_U241
*809 iir_inst_mult_56_U240
*810 iir_inst_mult_56_U239
*811 iir_inst_mult_56_U238
*812 iir_inst_mult_56_U237
*813 iir_inst_mult_56_U236
*814 iir_inst_mult_56_U235
*815 iir_inst_mult_56_U234
*816 iir_inst_mult_56_U233
*817 iir_inst_mult_56_U232
*818 iir_inst_mult_56_U231
*819 iir_inst_mult_56_U230
*820 iir_inst_mult_56_U229
*821 iir_inst_mult_56_U228
*822 iir_inst_mult_56_U227
*823 iir_inst_mult_56_U226
*824 iir_inst_mult_56_U225
*825 iir_inst_mult_56_U224
*826 iir_inst_mult_56_U223
*827 iir_inst_mult_56_U222
*828 iir_inst_mult_56_U220
*829 iir_inst_mult_56_U219
*830 iir_inst_mult_56_U218
*831 iir_inst_mult_56_U217
*832 iir_inst_mult_56_U216
*833 iir_inst_mult_56_U215
*834 iir_inst_mult_56_U214
*835 iir_inst_mult_56_U213
*836 iir_inst_mult_56_U212
*837 iir_inst_mult_56_U211
*838 iir_inst_mult_56_U210
*839 iir_inst_mult_56_U209
*840 iir_inst_mult_56_U208
*841 iir_inst_mult_56_U207
*842 iir_inst_mult_56_U206
*843 iir_inst_mult_56_U205
*844 iir_inst_mult_56_U204
*845 iir_inst_mult_56_U203
*846 iir_inst_mult_56_U202
*847 iir_inst_mult_56_U201
*848 iir_inst_mult_56_U200
*849 iir_inst_mult_56_U199
*850 iir_inst_mult_56_U198
*851 iir_inst_mult_56_U197
*852 iir_inst_mult_56_U196
*853 iir_inst_mult_56_U194
*854 iir_inst_mult_56_U193
*855 iir_inst_mult_56_U192
*856 iir_inst_mult_56_U191
*857 iir_inst_mult_56_U190
*858 iir_inst_mult_56_U189
*859 iir_inst_mult_56_U188
*860 iir_inst_mult_56_U187
*861 iir_inst_mult_56_U186
*862 iir_inst_mult_56_U185
*863 iir_inst_mult_56_U184
*864 iir_inst_mult_56_U183
*865 iir_inst_mult_56_U181
*866 iir_inst_mult_56_U180
*867 iir_inst_mult_56_U179
*868 iir_inst_mult_56_U178
*869 iir_inst_mult_56_U177
*870 iir_inst_mult_56_U176
*871 iir_inst_mult_56_U175
*872 iir_inst_mult_56_U174
*873 iir_inst_mult_56_U173
*874 iir_inst_mult_56_U172
*875 iir_inst_mult_56_U171
*876 iir_inst_mult_56_U170
*877 iir_inst_mult_56_U169
*878 iir_inst_mult_56_U168
*879 iir_inst_mult_56_U167
*880 iir_inst_mult_56_U166
*881 iir_inst_mult_56_U165
*882 iir_inst_mult_56_U164
*883 iir_inst_mult_56_U40
*884 iir_inst_mult_56_U39
*885 iir_inst_mult_56_U38
*886 iir_inst_mult_56_U37
*887 iir_inst_mult_56_U36
*888 iir_inst_mult_56_U35
*889 iir_inst_mult_56_U34
*890 iir_inst_mult_56_U33
*891 iir_inst_mult_56_U32
*892 iir_inst_mult_56_U31
*893 iir_inst_mult_56_U30
*894 iir_inst_mult_56_U29
*895 iir_inst_mult_56_U26
*896 iir_inst_mult_56_U25
*897 iir_inst_mult_56_U23
*898 iir_inst_mult_56_U22
*899 iir_inst_mult_56_U21
*900 iir_inst_mult_56_U20
*901 iir_inst_mult_56_U18
*902 iir_inst_mult_56_U17
*903 iir_inst_mult_56_U9
*904 iir_inst_mult_56_U8
*905 iir_inst_mult_56_U7
*906 iir_inst_mult_56_U6
*907 iir_inst_mult_56_U5
*908 iir_inst_mult_56_U4
*909 iir_inst_mult_56_U3
*910 iir_inst_mult_55_U277
*911 iir_inst_mult_55_U276
*912 iir_inst_mult_55_U275
*913 iir_inst_mult_55_U274
*914 iir_inst_mult_55_U273
*915 iir_inst_mult_55_U272
*916 iir_inst_mult_55_U271
*917 iir_inst_mult_55_U270
*918 iir_inst_mult_55_U269
*919 iir_inst_mult_55_U267
*920 iir_inst_mult_55_U266
*921 iir_inst_mult_55_U265
*922 iir_inst_mult_55_U264
*923 iir_inst_mult_55_U263
*924 iir_inst_mult_55_U262
*925 iir_inst_mult_55_U261
*926 iir_inst_mult_55_U260
*927 iir_inst_mult_55_U259
*928 iir_inst_mult_55_U258
*929 iir_inst_mult_55_U257
*930 iir_inst_mult_55_U256
*931 iir_inst_mult_55_U255
*932 iir_inst_mult_55_U254
*933 iir_inst_mult_55_U253
*934 iir_inst_mult_55_U252
*935 iir_inst_mult_55_U251
*936 iir_inst_mult_55_U250
*937 iir_inst_mult_55_U249
*938 iir_inst_mult_55_U248
*939 iir_inst_mult_55_U247
*940 iir_inst_mult_55_U246
*941 iir_inst_mult_55_U245
*942 iir_inst_mult_55_U244
*943 iir_inst_mult_55_U243
*944 iir_inst_mult_55_U242
*945 iir_inst_mult_55_U241
*946 iir_inst_mult_55_U240
*947 iir_inst_mult_55_U239
*948 iir_inst_mult_55_U238
*949 iir_inst_mult_55_U237
*950 iir_inst_mult_55_U236
*951 iir_inst_mult_55_U235
*952 iir_inst_mult_55_U234
*953 iir_inst_mult_55_U233
*954 iir_inst_mult_55_U232
*955 iir_inst_mult_55_U231
*956 iir_inst_mult_55_U230
*957 iir_inst_mult_55_U229
*958 iir_inst_mult_55_U228
*959 iir_inst_mult_55_U227
*960 iir_inst_mult_55_U226
*961 iir_inst_mult_55_U225
*962 iir_inst_mult_55_U224
*963 iir_inst_mult_55_U223
*964 iir_inst_mult_55_U222
*965 iir_inst_mult_55_U220
*966 iir_inst_mult_55_U219
*967 iir_inst_mult_55_U218
*968 iir_inst_mult_55_U217
*969 iir_inst_mult_55_U216
*970 iir_inst_mult_55_U215
*971 iir_inst_mult_55_U214
*972 iir_inst_mult_55_U213
*973 iir_inst_mult_55_U212
*974 iir_inst_mult_55_U211
*975 iir_inst_mult_55_U210
*976 iir_inst_mult_55_U209
*977 iir_inst_mult_55_U208
*978 iir_inst_mult_55_U207
*979 iir_inst_mult_55_U206
*980 iir_inst_mult_55_U205
*981 iir_inst_mult_55_U204
*982 iir_inst_mult_55_U203
*983 iir_inst_mult_55_U202
*984 iir_inst_mult_55_U201
*985 iir_inst_mult_55_U200
*986 iir_inst_mult_55_U199
*987 iir_inst_mult_55_U198
*988 iir_inst_mult_55_U197
*989 iir_inst_mult_55_U196
*990 iir_inst_mult_55_U194
*991 iir_inst_mult_55_U193
*992 iir_inst_mult_55_U192
*993 iir_inst_mult_55_U191
*994 iir_inst_mult_55_U190
*995 iir_inst_mult_55_U189
*996 iir_inst_mult_55_U188
*997 iir_inst_mult_55_U187
*998 iir_inst_mult_55_U186
*999 iir_inst_mult_55_U185
*1000 iir_inst_mult_55_U184
*1001 iir_inst_mult_55_U183
*1002 iir_inst_mult_55_U182
*1003 iir_inst_mult_55_U181
*1004 iir_inst_mult_55_U180
*1005 iir_inst_mult_55_U179
*1006 iir_inst_mult_55_U178
*1007 iir_inst_mult_55_U177
*1008 iir_inst_mult_55_U176
*1009 iir_inst_mult_55_U175
*1010 iir_inst_mult_55_U174
*1011 iir_inst_mult_55_U173
*1012 iir_inst_mult_55_U172
*1013 iir_inst_mult_55_U171
*1014 iir_inst_mult_55_U170
*1015 iir_inst_mult_55_U169
*1016 iir_inst_mult_55_U168
*1017 iir_inst_mult_55_U167
*1018 iir_inst_mult_55_U166
*1019 iir_inst_mult_55_U165
*1020 iir_inst_mult_55_U164
*1021 iir_inst_mult_55_U40
*1022 iir_inst_mult_55_U39
*1023 iir_inst_mult_55_U38
*1024 iir_inst_mult_55_U37
*1025 iir_inst_mult_55_U36
*1026 iir_inst_mult_55_U35
*1027 iir_inst_mult_55_U34
*1028 iir_inst_mult_55_U33
*1029 iir_inst_mult_55_U32
*1030 iir_inst_mult_55_U31
*1031 iir_inst_mult_55_U30
*1032 iir_inst_mult_55_U29
*1033 iir_inst_mult_55_U26
*1034 iir_inst_mult_55_U25
*1035 iir_inst_mult_55_U23
*1036 iir_inst_mult_55_U22
*1037 iir_inst_mult_55_U21
*1038 iir_inst_mult_55_U20
*1039 iir_inst_mult_55_U18
*1040 iir_inst_mult_55_U17
*1041 iir_inst_mult_55_U9
*1042 iir_inst_mult_55_U8
*1043 iir_inst_mult_55_U7
*1044 iir_inst_mult_55_U6
*1045 iir_inst_mult_55_U5
*1046 iir_inst_mult_55_U4
*1047 iir_inst_mult_55_U3
*1048 iir_inst_add_62_U2
*1049 iir_inst_add_62_U1
*1050 iir_inst_add_62_U1_1
*1051 iir_inst_add_62_U1_2
*1052 iir_inst_add_62_U1_3
*1053 iir_inst_add_62_U1_4
*1054 iir_inst_add_62_U1_5
*1055 iir_inst_add_62_U1_6
*1056 iir_inst_add_62_U1_7
*1057 iir_inst_mult_54_U278
*1058 iir_inst_mult_54_U277
*1059 iir_inst_mult_54_U276
*1060 iir_inst_mult_54_U275
*1061 iir_inst_mult_54_U274
*1062 iir_inst_mult_54_U273
*1063 iir_inst_mult_54_U272
*1064 iir_inst_mult_54_U271
*1065 iir_inst_mult_54_U270
*1066 iir_inst_mult_54_U269
*1067 iir_inst_mult_54_U268
*1068 iir_inst_mult_54_U267
*1069 iir_inst_mult_54_U266
*1070 iir_inst_mult_54_U265
*1071 iir_inst_mult_54_U264
*1072 iir_inst_mult_54_U263
*1073 iir_inst_mult_54_U262
*1074 iir_inst_mult_54_U261
*1075 iir_inst_mult_54_U260
*1076 iir_inst_mult_54_U259
*1077 iir_inst_mult_54_U258
*1078 iir_inst_mult_54_U257
*1079 iir_inst_mult_54_U256
*1080 iir_inst_mult_54_U255
*1081 iir_inst_mult_54_U254
*1082 iir_inst_mult_54_U253
*1083 iir_inst_mult_54_U252
*1084 iir_inst_mult_54_U251
*1085 iir_inst_mult_54_U250
*1086 iir_inst_mult_54_U249
*1087 iir_inst_mult_54_U248
*1088 iir_inst_mult_54_U247
*1089 iir_inst_mult_54_U246
*1090 iir_inst_mult_54_U245
*1091 iir_inst_mult_54_U244
*1092 iir_inst_mult_54_U243
*1093 iir_inst_mult_54_U242
*1094 iir_inst_mult_54_U241
*1095 iir_inst_mult_54_U240
*1096 iir_inst_mult_54_U239
*1097 iir_inst_mult_54_U238
*1098 iir_inst_mult_54_U237
*1099 iir_inst_mult_54_U236
*1100 iir_inst_mult_54_U235
*1101 iir_inst_mult_54_U234
*1102 iir_inst_mult_54_U233
*1103 iir_inst_mult_54_U232
*1104 iir_inst_mult_54_U231
*1105 iir_inst_mult_54_U230
*1106 iir_inst_mult_54_U229
*1107 iir_inst_mult_54_U228
*1108 iir_inst_mult_54_U227
*1109 iir_inst_mult_54_U226
*1110 iir_inst_mult_54_U225
*1111 iir_inst_mult_54_U224
*1112 iir_inst_mult_54_U223
*1113 iir_inst_mult_54_U222
*1114 iir_inst_mult_54_U221
*1115 iir_inst_mult_54_U220
*1116 iir_inst_mult_54_U219
*1117 iir_inst_mult_54_U218
*1118 iir_inst_mult_54_U217
*1119 iir_inst_mult_54_U216
*1120 iir_inst_mult_54_U215
*1121 iir_inst_mult_54_U214
*1122 iir_inst_mult_54_U213
*1123 iir_inst_mult_54_U212
*1124 iir_inst_mult_54_U211
*1125 iir_inst_mult_54_U210
*1126 iir_inst_mult_54_U209
*1127 iir_inst_mult_54_U208
*1128 iir_inst_mult_54_U206
*1129 iir_inst_mult_54_U205
*1130 iir_inst_mult_54_U204
*1131 iir_inst_mult_54_U203
*1132 iir_inst_mult_54_U202
*1133 iir_inst_mult_54_U201
*1134 iir_inst_mult_54_U200
*1135 iir_inst_mult_54_U199
*1136 iir_inst_mult_54_U198
*1137 iir_inst_mult_54_U197
*1138 iir_inst_mult_54_U196
*1139 iir_inst_mult_54_U195
*1140 iir_inst_mult_54_U194
*1141 iir_inst_mult_54_U193
*1142 iir_inst_mult_54_U192
*1143 iir_inst_mult_54_U190
*1144 iir_inst_mult_54_U188
*1145 iir_inst_mult_54_U187
*1146 iir_inst_mult_54_U185
*1147 iir_inst_mult_54_U184
*1148 iir_inst_mult_54_U183
*1149 iir_inst_mult_54_U182
*1150 iir_inst_mult_54_U181
*1151 iir_inst_mult_54_U180
*1152 iir_inst_mult_54_U179
*1153 iir_inst_mult_54_U178
*1154 iir_inst_mult_54_U177
*1155 iir_inst_mult_54_U176
*1156 iir_inst_mult_54_U175
*1157 iir_inst_mult_54_U174
*1158 iir_inst_mult_54_U173
*1159 iir_inst_mult_54_U172
*1160 iir_inst_mult_54_U171
*1161 iir_inst_mult_54_U170
*1162 iir_inst_mult_54_U169
*1163 iir_inst_mult_54_U41
*1164 iir_inst_mult_54_U40
*1165 iir_inst_mult_54_U39
*1166 iir_inst_mult_54_U38
*1167 iir_inst_mult_54_U37
*1168 iir_inst_mult_54_U36
*1169 iir_inst_mult_54_U35
*1170 iir_inst_mult_54_U34
*1171 iir_inst_mult_54_U33
*1172 iir_inst_mult_54_U32
*1173 iir_inst_mult_54_U31
*1174 iir_inst_mult_54_U30
*1175 iir_inst_mult_54_U27
*1176 iir_inst_mult_54_U26
*1177 iir_inst_mult_54_U24
*1178 iir_inst_mult_54_U23
*1179 iir_inst_mult_54_U22
*1180 iir_inst_mult_54_U21
*1181 iir_inst_mult_54_U19