*SPEF "IEEE 1481-1998"
*DESIGN "myiir"
*DATE "Tue Nov  3 18:55:33 2020"
*VENDOR "Cadence Design Systems, Inc."
*PROGRAM "Innovus"
*VERSION "17.11-s080_1"
*DESIGN_FLOW "COUPLING C" "PIN_CAP NONE" "NAME_SCOPE LOCAL"
*DIVIDER /
*DELIMITER :
*BUS_DELIMITER []
*T_UNIT 1 NS
*C_UNIT 1 PF
*R_UNIT 1 OHM
*L_UNIT 1 HENRY

// MMMC spef file for corner 'my_rc'

*NAME_MAP

*1 VIN
*2 CLK
*3 RST_n
*4 an1[7]
*5 an1[6]
*6 an1[5]
*7 an1[4]
*8 an1[3]
*9 an1[2]
*10 an1[1]
*11 an1[0]
*12 b0[7]
*13 b0[6]
*14 b0[5]
*15 b0[4]
*16 b0[3]
*17 b0[2]
*18 b0[1]
*19 b0[0]
*20 bn1[7]
*21 bn1[6]
*22 bn1[5]
*23 bn1[4]
*24 bn1[3]
*25 bn1[2]
*26 bn1[1]
*27 bn1[0]
*28 bn2[7]
*29 bn2[6]
*30 bn2[5]
*31 bn2[4]
*32 bn2[3]
*33 bn2[2]
*34 bn2[1]
*35 bn2[0]
*36 DIN[7]
*37 DIN[6]
*38 DIN[5]
*39 DIN[4]
*40 DIN[3]
*41 DIN[2]
*42 DIN[1]
*43 DIN[0]
*44 VOUT
*45 DOUT[7]
*46 DOUT[6]
*47 DOUT[5]
*48 DOUT[4]
*49 DOUT[3]
*50 DOUT[2]
*51 DOUT[1]
*52 DOUT[0]
*53 FE_OFN5_iir_inst_mult_86_n809
*54 FE_OFN3_iir_inst_n70
*55 FE_OFN2_iir_inst_mult_85_n246
*56 FE_OFN1_iir_inst_mult_85_n245
*57 FE_OFN0_iir_inst_n69
*58 FE_DBTN9_RST_n
*59 FE_DBTN8_iir_inst_n197
*60 FE_DBTN7_iir_inst_w1_3
*61 FE_DBTN6_iir_inst_w1_4
*62 FE_DBTN5_iir_inst_w1_2
*63 FE_DBTN4_iir_inst_w1_6
*64 FE_DBTN3_iir_inst_w1_0
*65 FE_DBTN2_iir_inst_w1_5
*66 FE_DBTN1_iir_inst_w1_1
*67 FE_DBTN0_iir_inst_w1_7
*68 VIN_del
*69 VIN_del3
*70 VIN_del2
*71 iir_inst_n418
*72 iir_inst_n417
*73 iir_inst_n416
*74 iir_inst_n415
*75 iir_inst_n414
*76 iir_inst_n413
*77 iir_inst_n412
*78 iir_inst_n411
*79 iir_inst_n410
*80 iir_inst_n409
*81 iir_inst_n408
*82 iir_inst_n407
*83 iir_inst_n406
*84 iir_inst_n405
*85 iir_inst_n404
*86 iir_inst_n403
*87 iir_inst_n402
*88 iir_inst_n401
*89 iir_inst_n400
*90 iir_inst_n399
*91 iir_inst_n398
*92 iir_inst_n397
*93 iir_inst_n396
*94 iir_inst_n395
*95 iir_inst_n394
*96 iir_inst_n393
*97 iir_inst_n392
*98 iir_inst_n391
*99 iir_inst_n390
*100 iir_inst_n389
*101 iir_inst_n388
*102 iir_inst_n387
*103 iir_inst_n386
*104 iir_inst_n385
*105 iir_inst_n384
*106 iir_inst_n383
*107 iir_inst_n382
*108 iir_inst_n381
*109 iir_inst_n380
*110 iir_inst_n379
*111 iir_inst_n378
*112 iir_inst_n377
*113 iir_inst_n376
*114 iir_inst_n375
*115 iir_inst_n374
*116 iir_inst_n373
*117 iir_inst_n372
*118 iir_inst_n371
*119 iir_inst_n370
*120 iir_inst_n369
*121 iir_inst_n368
*122 iir_inst_n367
*123 iir_inst_n366
*124 iir_inst_n365
*125 iir_inst_n364
*126 iir_inst_n363
*127 iir_inst_n362
*128 iir_inst_n361
*129 iir_inst_n360
*130 iir_inst_n359
*131 iir_inst_n358
*132 iir_inst_n357
*133 iir_inst_n70
*134 iir_inst_n69
*135 iir_inst_n344
*136 iir_inst_n343
*137 iir_inst_n342
*138 iir_inst_n341
*139 iir_inst_n340
*140 iir_inst_n339
*141 iir_inst_n338
*142 iir_inst_n191
*143 iir_inst_n190
*144 iir_inst_n189
*145 iir_inst_n188
*146 iir_inst_n187
*147 iir_inst_n186
*148 iir_inst_n185
*149 iir_inst_n184
*150 iir_inst_n183
*151 iir_inst_n197
*152 iir_inst_n174
*153 iir_inst_n173
*154 iir_inst_n172
*155 iir_inst_n171
*156 iir_inst_n170
*157 iir_inst_n169
*158 iir_inst_n168
*159 iir_inst_n167
*160 iir_inst_n166
*161 iir_inst_n165
*162 iir_inst_n164
*163 iir_inst_n163
*164 iir_inst_n162
*165 iir_inst_n161
*166 iir_inst_n160
*167 iir_inst_n159
*168 iir_inst_n158
*169 iir_inst_n157
*170 iir_inst_n156
*171 iir_inst_n155
*172 iir_inst_n154
*173 iir_inst_n153
*174 iir_inst_n152
*175 iir_inst_n151
*176 iir_inst_n150
*177 iir_inst_n149
*178 iir_inst_n148
*179 iir_inst_n147
*180 iir_inst_n146
*181 iir_inst_n145
*182 iir_inst_n144
*183 iir_inst_n143
*184 iir_inst_n133
*185 iir_inst_n132
*186 iir_inst_n131
*187 iir_inst_n130
*188 iir_inst_n129
*189 iir_inst_n128
*190 iir_inst_n127
*191 iir_inst_n126
*192 iir_inst_n125
*193 iir_inst_n124
*194 iir_inst_n123
*195 iir_inst_n122
*196 iir_inst_n121
*197 iir_inst_n120
*198 iir_inst_n119
*199 iir_inst_n118
*200 iir_inst_n117
*201 iir_inst_n116
*202 iir_inst_n115
*203 iir_inst_n114
*204 iir_inst_n113
*205 iir_inst_n112
*206 iir_inst_n111
*207 iir_inst_n110
*208 iir_inst_n109
*209 iir_inst_n108
*210 iir_inst_n107
*211 iir_inst_n106
*212 iir_inst_n105
*213 iir_inst_n104
*214 iir_inst_n103
*215 iir_inst_n102
*216 iir_inst_n101
*217 iir_inst_n95
*218 iir_inst_n94
*219 iir_inst_n91
*220 iir_inst_n90
*221 iir_inst_n89
*222 iir_inst_n88
*223 iir_inst_n87
*224 iir_inst_n86
*225 iir_inst_n85
*226 iir_inst_n84
*227 iir_inst_n83
*228 iir_inst_n82
*229 iir_inst_n81
*230 iir_inst_n80
*231 iir_inst_n79
*232 iir_inst_n78
*233 iir_inst_n77
*234 iir_inst_n76
*235 iir_inst_n75
*236 iir_inst_n74
*237 iir_inst_n73
*238 iir_inst_n72
*239 iir_inst_n71
*240 iir_inst_n142
*241 iir_inst_n141
*242 iir_inst_n140
*243 iir_inst_n139
*244 iir_inst_n138
*245 iir_inst_n137
*246 iir_inst_n136
*247 iir_inst_n135
*248 iir_inst_n134
*249 iir_inst_add_96_n2
*250 iir_inst_add_94_n2
*251 iir_inst_add_82_n2
*252 iir_inst_mult_84_n380
*253 iir_inst_mult_84_n379
*254 iir_inst_mult_84_n378
*255 iir_inst_mult_84_n377
*256 iir_inst_mult_84_n376
*257 iir_inst_mult_84_n375
*258 iir_inst_mult_84_n374
*259 iir_inst_mult_84_n373
*260 iir_inst_mult_84_n365
*261 iir_inst_mult_84_n362
*262 iir_inst_mult_84_n361
*263 iir_inst_mult_84_n360
*264 iir_inst_mult_84_n359
*265 iir_inst_mult_84_n358
*266 iir_inst_mult_84_n357
*267 iir_inst_mult_84_n356
*268 iir_inst_mult_84_n355
*269 iir_inst_mult_84_n354
*270 iir_inst_mult_84_n353
*271 iir_inst_mult_84_n352
*272 iir_inst_mult_84_n322
*273 iir_inst_mult_84_n321
*274 iir_inst_mult_84_n320
*275 iir_inst_mult_84_n319
*276 iir_inst_mult_84_n318
*277 iir_inst_mult_84_n317
*278 iir_inst_mult_84_n316
*279 iir_inst_mult_84_n315
*280 iir_inst_mult_84_n314
*281 iir_inst_mult_84_n313
*282 iir_inst_mult_84_n309
*283 iir_inst_mult_84_n306
*284 iir_inst_mult_84_n303
*285 iir_inst_mult_84_n301
*286 iir_inst_mult_84_n299
*287 iir_inst_mult_84_n248
*288 iir_inst_mult_84_n247
*289 iir_inst_mult_84_n246
*290 iir_inst_mult_84_n245
*291 iir_inst_mult_84_n244
*292 iir_inst_mult_84_n243
*293 iir_inst_mult_84_n241
*294 iir_inst_mult_84_n240
*295 iir_inst_mult_84_n239
*296 iir_inst_mult_84_n238
*297 iir_inst_mult_84_n237
*298 iir_inst_mult_84_n236
*299 iir_inst_mult_84_n235
*300 iir_inst_mult_84_n234
*301 iir_inst_mult_84_n233
*302 iir_inst_mult_84_n232
*303 iir_inst_mult_84_n231
*304 iir_inst_mult_84_n230
*305 iir_inst_mult_84_n229
*306 iir_inst_mult_84_n228
*307 iir_inst_mult_84_n227
*308 iir_inst_mult_84_n226
*309 iir_inst_mult_84_n225
*310 iir_inst_mult_84_n224
*311 iir_inst_mult_84_n223
*312 iir_inst_mult_84_n222
*313 iir_inst_mult_84_n221
*314 iir_inst_mult_84_n220
*315 iir_inst_mult_84_n219
*316 iir_inst_mult_84_n218
*317 iir_inst_mult_84_n217
*318 iir_inst_mult_84_n216
*319 iir_inst_mult_84_n215
*320 iir_inst_mult_84_n214
*321 iir_inst_mult_84_n213
*322 iir_inst_mult_84_n212
*323 iir_inst_mult_84_n211
*324 iir_inst_mult_84_n210
*325 iir_inst_mult_84_n209
*326 iir_inst_mult_84_n208
*327 iir_inst_mult_84_n207
*328 iir_inst_mult_84_n206
*329 iir_inst_mult_84_n205
*330 iir_inst_mult_84_n204
*331 iir_inst_mult_84_n203
*332 iir_inst_mult_84_n202
*333 iir_inst_mult_84_n201
*334 iir_inst_mult_84_n200
*335 iir_inst_mult_84_n199
*336 iir_inst_mult_84_n198
*337 iir_inst_mult_84_n197
*338 iir_inst_mult_84_n196
*339 iir_inst_mult_84_n195
*340 iir_inst_mult_84_n194
*341 iir_inst_mult_84_n193
*342 iir_inst_mult_84_n192
*343 iir_inst_mult_84_n191
*344 iir_inst_mult_84_n190
*345 iir_inst_mult_84_n189
*346 iir_inst_mult_84_n188
*347 iir_inst_mult_84_n187
*348 iir_inst_mult_84_n186
*349 iir_inst_mult_84_n185
*350 iir_inst_mult_84_n184
*351 iir_inst_mult_84_n183
*352 iir_inst_mult_84_n182
*353 iir_inst_mult_84_n181
*354 iir_inst_mult_84_n180
*355 iir_inst_mult_84_n179
*356 iir_inst_mult_84_n178
*357 iir_inst_mult_84_n177
*358 iir_inst_mult_84_n176
*359 iir_inst_mult_84_n175
*360 iir_inst_mult_84_n174
*361 iir_inst_mult_84_n173
*362 iir_inst_mult_84_n172
*363 iir_inst_mult_84_n171
*364 iir_inst_mult_84_n170
*365 iir_inst_mult_84_n169
*366 iir_inst_mult_84_n168
*367 iir_inst_mult_84_n167
*368 iir_inst_mult_84_n166
*369 iir_inst_mult_84_n165
*370 iir_inst_mult_84_n164
*371 iir_inst_mult_84_n163
*372 iir_inst_mult_84_n162
*373 iir_inst_mult_84_n161
*374 iir_inst_mult_84_n160
*375 iir_inst_mult_84_n159
*376 iir_inst_mult_84_n158
*377 iir_inst_mult_84_n157
*378 iir_inst_mult_84_n156
*379 iir_inst_mult_84_n155
*380 iir_inst_mult_84_n154
*381 iir_inst_mult_84_n153
*382 iir_inst_mult_84_n152
*383 iir_inst_mult_84_n151
*384 iir_inst_mult_84_n150
*385 iir_inst_mult_84_n149
*386 iir_inst_mult_84_n148
*387 iir_inst_mult_84_n147
*388 iir_inst_mult_84_n146
*389 iir_inst_mult_84_n145
*390 iir_inst_mult_84_n144
*391 iir_inst_mult_84_n143
*392 iir_inst_mult_84_n142
*393 iir_inst_mult_84_n141
*394 iir_inst_mult_84_n140
*395 iir_inst_mult_84_n139
*396 iir_inst_mult_84_n138
*397 iir_inst_mult_84_n136
*398 iir_inst_mult_84_n135
*399 iir_inst_mult_84_n134
*400 iir_inst_mult_84_n133
*401 iir_inst_mult_84_n132
*402 iir_inst_mult_84_n131
*403 iir_inst_mult_84_n130
*404 iir_inst_mult_84_n129
*405 iir_inst_mult_84_n128
*406 iir_inst_mult_84_n127
*407 iir_inst_mult_84_n126
*408 iir_inst_mult_84_n125
*409 iir_inst_mult_84_n124
*410 iir_inst_mult_84_n123
*411 iir_inst_mult_84_n122
*412 iir_inst_mult_84_n121
*413 iir_inst_mult_84_n120
*414 iir_inst_mult_84_n119
*415 iir_inst_mult_84_n118
*416 iir_inst_mult_84_n117
*417 iir_inst_mult_84_n116
*418 iir_inst_mult_84_n115
*419 iir_inst_mult_84_n114
*420 iir_inst_mult_84_n113
*421 iir_inst_mult_84_n112
*422 iir_inst_mult_84_n111
*423 iir_inst_mult_84_n110
*424 iir_inst_mult_84_n109
*425 iir_inst_mult_84_n108
*426 iir_inst_mult_84_n107
*427 iir_inst_mult_84_n106
*428 iir_inst_mult_84_n105
*429 iir_inst_mult_84_n104
*430 iir_inst_mult_84_n103
*431 iir_inst_mult_84_n102
*432 iir_inst_mult_84_n101
*433 iir_inst_mult_84_n100
*434 iir_inst_mult_84_n99
*435 iir_inst_mult_84_n98
*436 iir_inst_mult_84_n97
*437 iir_inst_mult_84_n96
*438 iir_inst_mult_84_n95
*439 iir_inst_mult_84_n94
*440 iir_inst_mult_84_n93
*441 iir_inst_mult_84_n92
*442 iir_inst_mult_84_n91
*443 iir_inst_mult_84_n90
*444 iir_inst_mult_84_n89
*445 iir_inst_mult_84_n88
*446 iir_inst_mult_84_n87
*447 iir_inst_mult_84_n86
*448 iir_inst_mult_84_n85
*449 iir_inst_mult_84_n84
*450 iir_inst_mult_84_n83
*451 iir_inst_mult_84_n82
*452 iir_inst_mult_84_n70
*453 iir_inst_mult_84_n69
*454 iir_inst_mult_84_n68
*455 iir_inst_mult_84_n67
*456 iir_inst_mult_84_n66
*457 iir_inst_mult_84_n65
*458 iir_inst_mult_84_n64
*459 iir_inst_mult_84_n63
*460 iir_inst_mult_84_n62
*461 iir_inst_mult_84_n61
*462 iir_inst_mult_84_n60
*463 iir_inst_mult_84_n58
*464 iir_inst_mult_84_n57
*465 iir_inst_mult_84_n56
*466 iir_inst_mult_84_n54
*467 iir_inst_mult_84_n53
*468 iir_inst_mult_84_n52
*469 iir_inst_mult_84_n51
*470 iir_inst_mult_84_n49
*471 iir_inst_mult_84_n48
*472 iir_inst_mult_84_n47
*473 iir_inst_mult_84_n45
*474 iir_inst_mult_84_n44
*475 iir_inst_mult_84_n41
*476 iir_inst_mult_84_n40
*477 iir_inst_mult_84_n39
*478 iir_inst_mult_84_n34
*479 iir_inst_mult_84_n33
*480 iir_inst_mult_84_n32
*481 iir_inst_mult_84_n31
*482 iir_inst_mult_84_n28
*483 iir_inst_mult_84_n27
*484 iir_inst_mult_84_n26
*485 iir_inst_mult_84_n25
*486 iir_inst_mult_84_n24
*487 iir_inst_mult_84_n23
*488 iir_inst_mult_84_n22
*489 iir_inst_mult_84_n21
*490 iir_inst_mult_84_n20
*491 iir_inst_mult_84_n19
*492 iir_inst_mult_84_n18
*493 iir_inst_mult_84_n17
*494 iir_inst_mult_84_n13
*495 iir_inst_mult_84_n12
*496 iir_inst_mult_84_n10
*497 iir_inst_mult_84_n8
*498 iir_inst_mult_84_n7
*499 iir_inst_mult_84_n3
*500 iir_inst_mult_86_n776
*501 iir_inst_mult_86_n775
*502 iir_inst_mult_86_n774
*503 iir_inst_mult_86_n772
*504 iir_inst_mult_86_n771
*505 iir_inst_mult_86_n768
*506 iir_inst_mult_86_n767
*507 iir_inst_mult_86_n766
*508 iir_inst_mult_86_n765
*509 iir_inst_mult_86_n764
*510 iir_inst_mult_86_n763
*511 iir_inst_mult_86_n762
*512 iir_inst_mult_86_n761
*513 iir_inst_mult_86_n760
*514 iir_inst_mult_86_n759
*515 iir_inst_mult_86_n758
*516 iir_inst_mult_86_n757
*517 iir_inst_mult_86_n756
*518 iir_inst_mult_86_n755
*519 iir_inst_mult_86_n754
*520 iir_inst_mult_86_n753
*521 iir_inst_mult_86_n752
*522 iir_inst_mult_86_n751
*523 iir_inst_mult_86_n750
*524 iir_inst_mult_86_n749
*525 iir_inst_mult_86_n748
*526 iir_inst_mult_86_n747
*527 iir_inst_mult_86_n746
*528 iir_inst_mult_86_n745
*529 iir_inst_mult_86_n744
*530 iir_inst_mult_86_n742
*531 iir_inst_mult_86_n741
*532 iir_inst_mult_86_n740
*533 iir_inst_mult_86_n739
*534 iir_inst_mult_86_n738
*535 iir_inst_mult_86_n737
*536 iir_inst_mult_86_n736
*537 iir_inst_mult_86_n735
*538 iir_inst_mult_86_n734
*539 iir_inst_mult_86_n733
*540 iir_inst_mult_86_n732
*541 iir_inst_mult_86_n731
*542 iir_inst_mult_86_n730
*543 iir_inst_mult_86_n729
*544 iir_inst_mult_86_n728
*545 iir_inst_mult_86_n727
*546 iir_inst_mult_86_n726
*547 iir_inst_mult_86_n725
*548 iir_inst_mult_86_n724
*549 iir_inst_mult_86_n723
*550 iir_inst_mult_86_n722
*551 iir_inst_mult_86_n721
*552 iir_inst_mult_86_n720
*553 iir_inst_mult_86_n719
*554 iir_inst_mult_86_n1000
*555 iir_inst_mult_86_n999
*556 iir_inst_mult_86_n998
*557 iir_inst_mult_86_n997
*558 iir_inst_mult_86_n996
*559 iir_inst_mult_86_n995
*560 iir_inst_mult_86_n994
*561 iir_inst_mult_86_n993
*562 iir_inst_mult_86_n992
*563 iir_inst_mult_86_n991
*564 iir_inst_mult_86_n990
*565 iir_inst_mult_86_n989
*566 iir_inst_mult_86_n988
*567 iir_inst_mult_86_n987
*568 iir_inst_mult_86_n986
*569 iir_inst_mult_86_n985
*570 iir_inst_mult_86_n984
*571 iir_inst_mult_86_n983
*572 iir_inst_mult_86_n982
*573 iir_inst_mult_86_n981
*574 iir_inst_mult_86_n980
*575 iir_inst_mult_86_n979
*576 iir_inst_mult_86_n978
*577 iir_inst_mult_86_n977
*578 iir_inst_mult_86_n976
*579 iir_inst_mult_86_n975
*580 iir_inst_mult_86_n974
*581 iir_inst_mult_86_n973
*582 iir_inst_mult_86_n972
*583 iir_inst_mult_86_n971
*584 iir_inst_mult_86_n970
*585 iir_inst_mult_86_n969
*586 iir_inst_mult_86_n968
*587 iir_inst_mult_86_n967
*588 iir_inst_mult_86_n966
*589 iir_inst_mult_86_n965
*590 iir_inst_mult_86_n964
*591 iir_inst_mult_86_n963
*592 iir_inst_mult_86_n962
*593 iir_inst_mult_86_n961
*594 iir_inst_mult_86_n960
*595 iir_inst_mult_86_n959
*596 iir_inst_mult_86_n958
*597 iir_inst_mult_86_n957
*598 iir_inst_mult_86_n956
*599 iir_inst_mult_86_n955
*600 iir_inst_mult_86_n954
*601 iir_inst_mult_86_n953
*602 iir_inst_mult_86_n952
*603 iir_inst_mult_86_n951
*604 iir_inst_mult_86_n950
*605 iir_inst_mult_86_n949
*606 iir_inst_mult_86_n948
*607 iir_inst_mult_86_n947
*608 iir_inst_mult_86_n946
*609 iir_inst_mult_86_n945
*610 iir_inst_mult_86_n944
*611 iir_inst_mult_86_n943
*612 iir_inst_mult_86_n942
*613 iir_inst_mult_86_n941
*614 iir_inst_mult_86_n940
*615 iir_inst_mult_86_n939
*616 iir_inst_mult_86_n938
*617 iir_inst_mult_86_n937
*618 iir_inst_mult_86_n936
*619 iir_inst_mult_86_n935
*620 iir_inst_mult_86_n934
*621 iir_inst_mult_86_n933
*622 iir_inst_mult_86_n932
*623 iir_inst_mult_86_n931
*624 iir_inst_mult_86_n930
*625 iir_inst_mult_86_n929
*626 iir_inst_mult_86_n928
*627 iir_inst_mult_86_n927
*628 iir_inst_mult_86_n926
*629 iir_inst_mult_86_n925
*630 iir_inst_mult_86_n924
*631 iir_inst_mult_86_n923
*632 iir_inst_mult_86_n922
*633 iir_inst_mult_86_n921
*634 iir_inst_mult_86_n920
*635 iir_inst_mult_86_n919
*636 iir_inst_mult_86_n918
*637 iir_inst_mult_86_n917
*638 iir_inst_mult_86_n916
*639 iir_inst_mult_86_n915
*640 iir_inst_mult_86_n914
*641 iir_inst_mult_86_n913
*642 iir_inst_mult_86_n912
*643 iir_inst_mult_86_n911
*644 iir_inst_mult_86_n910
*645 iir_inst_mult_86_n909
*646 iir_inst_mult_86_n908
*647 iir_inst_mult_86_n907
*648 iir_inst_mult_86_n906
*649 iir_inst_mult_86_n905
*650 iir_inst_mult_86_n904
*651 iir_inst_mult_86_n903
*652 iir_inst_mult_86_n902
*653 iir_inst_mult_86_n901
*654 iir_inst_mult_86_n900
*655 iir_inst_mult_86_n899
*656 iir_inst_mult_86_n898
*657 iir_inst_mult_86_n897
*658 iir_inst_mult_86_n896
*659 iir_inst_mult_86_n895
*660 iir_inst_mult_86_n894
*661 iir_inst_mult_86_n893
*662 iir_inst_mult_86_n892
*663 iir_inst_mult_86_n891
*664 iir_inst_mult_86_n890
*665 iir_inst_mult_86_n889
*666 iir_inst_mult_86_n888
*667 iir_inst_mult_86_n887
*668 iir_inst_mult_86_n886
*669 iir_inst_mult_86_n885
*670 iir_inst_mult_86_n884
*671 iir_inst_mult_86_n883
*672 iir_inst_mult_86_n882
*673 iir_inst_mult_86_n881
*674 iir_inst_mult_86_n880
*675 iir_inst_mult_86_n879
*676 iir_inst_mult_86_n878
*677 iir_inst_mult_86_n877
*678 iir_inst_mult_86_n876
*679 iir_inst_mult_86_n875
*680 iir_inst_mult_86_n874
*681 iir_inst_mult_86_n873
*682 iir_inst_mult_86_n872
*683 iir_inst_mult_86_n871
*684 iir_inst_mult_86_n870
*685 iir_inst_mult_86_n869
*686 iir_inst_mult_86_n868
*687 iir_inst_mult_86_n867
*688 iir_inst_mult_86_n866
*689 iir_inst_mult_86_n865
*690 iir_inst_mult_86_n864
*691 iir_inst_mult_86_n863
*692 iir_inst_mult_86_n862
*693 iir_inst_mult_86_n861
*694 iir_inst_mult_86_n860
*695 iir_inst_mult_86_n859
*696 iir_inst_mult_86_n858
*697 iir_inst_mult_86_n857
*698 iir_inst_mult_86_n856
*699 iir_inst_mult_86_n855
*700 iir_inst_mult_86_n854
*701 iir_inst_mult_86_n852
*702 iir_inst_mult_86_n851
*703 iir_inst_mult_86_n850
*704 iir_inst_mult_86_n849
*705 iir_inst_mult_86_n848
*706 iir_inst_mult_86_n847
*707 iir_inst_mult_86_n846
*708 iir_inst_mult_86_n845
*709 iir_inst_mult_86_n844
*710 iir_inst_mult_86_n843
*711 iir_inst_mult_86_n842
*712 iir_inst_mult_86_n841
*713 iir_inst_mult_86_n840
*714 iir_inst_mult_86_n839
*715 iir_inst_mult_86_n838
*716 iir_inst_mult_86_n837
*717 iir_inst_mult_86_n836
*718 iir_inst_mult_86_n835
*719 iir_inst_mult_86_n834
*720 iir_inst_mult_86_n833
*721 iir_inst_mult_86_n832
*722 iir_inst_mult_86_n831
*723 iir_inst_mult_86_n830
*724 iir_inst_mult_86_n829
*725 iir_inst_mult_86_n828
*726 iir_inst_mult_86_n827
*727 iir_inst_mult_86_n826
*728 iir_inst_mult_86_n825
*729 iir_inst_mult_86_n824
*730 iir_inst_mult_86_n823
*731 iir_inst_mult_86_n822
*732 iir_inst_mult_86_n821
*733 iir_inst_mult_86_n820
*734 iir_inst_mult_86_n819
*735 iir_inst_mult_86_n818
*736 iir_inst_mult_86_n817
*737 iir_inst_mult_86_n816
*738 iir_inst_mult_86_n815
*739 iir_inst_mult_86_n814
*740 iir_inst_mult_86_n813
*741 iir_inst_mult_86_n812
*742 iir_inst_mult_86_n811
*743 iir_inst_mult_86_n810
*744 iir_inst_mult_86_n809
*745 iir_inst_mult_86_n808
*746 iir_inst_mult_86_n807
*747 iir_inst_mult_86_n806
*748 iir_inst_mult_86_n805
*749 iir_inst_mult_86_n804
*750 iir_inst_mult_86_n803
*751 iir_inst_mult_86_n802
*752 iir_inst_mult_86_n801
*753 iir_inst_mult_86_n800
*754 iir_inst_mult_86_n799
*755 iir_inst_mult_86_n798
*756 iir_inst_mult_86_n797
*757 iir_inst_mult_86_n796
*758 iir_inst_mult_86_n795
*759 iir_inst_mult_86_n794
*760 iir_inst_mult_86_n793
*761 iir_inst_mult_86_n792
*762 iir_inst_mult_86_n791
*763 iir_inst_mult_86_n790
*764 iir_inst_mult_86_n789
*765 iir_inst_mult_86_n788
*766 iir_inst_mult_86_n787
*767 iir_inst_mult_86_n786
*768 iir_inst_mult_86_n785
*769 iir_inst_mult_86_n784
*770 iir_inst_mult_86_n783
*771 iir_inst_mult_86_n782
*772 iir_inst_mult_86_n781
*773 iir_inst_mult_86_n780
*774 iir_inst_mult_86_n779
*775 iir_inst_mult_86_n778
*776 iir_inst_mult_86_n777
*777 iir_inst_mult_87_n400
*778 iir_inst_mult_87_n399
*779 iir_inst_mult_87_n398
*780 iir_inst_mult_87_n397
*781 iir_inst_mult_87_n396
*782 iir_inst_mult_87_n395
*783 iir_inst_mult_87_n394
*784 iir_inst_mult_87_n393
*785 iir_inst_mult_87_n385
*786 iir_inst_mult_87_n384
*787 iir_inst_mult_87_n383
*788 iir_inst_mult_87_n380
*789 iir_inst_mult_87_n379
*790 iir_inst_mult_87_n378
*791 iir_inst_mult_87_n377
*792 iir_inst_mult_87_n376
*793 iir_inst_mult_87_n375
*794 iir_inst_mult_87_n374
*795 iir_inst_mult_87_n373
*796 iir_inst_mult_87_n372
*797 iir_inst_mult_87_n371
*798 iir_inst_mult_87_n370
*799 iir_inst_mult_87_n369
*800 iir_inst_mult_87_n336
*801 iir_inst_mult_87_n335
*802 iir_inst_mult_87_n334
*803 iir_inst_mult_87_n333
*804 iir_inst_mult_87_n332
*805 iir_inst_mult_87_n331
*806 iir_inst_mult_87_n330
*807 iir_inst_mult_87_n327
*808 iir_inst_mult_87_n321
*809 iir_inst_mult_87_n320
*810 iir_inst_mult_87_n319
*811 iir_inst_mult_87_n318
*812 iir_inst_mult_87_n317
*813 iir_inst_mult_87_n316
*814 iir_inst_mult_87_n315
*815 iir_inst_mult_87_n312
*816 iir_inst_mult_87_n308
*817 iir_inst_mult_87_n306
*818 iir_inst_mult_87_n258
*819 iir_inst_mult_87_n257
*820 iir_inst_mult_87_n256
*821 iir_inst_mult_87_n255
*822 iir_inst_mult_87_n254
*823 iir_inst_mult_87_n253
*824 iir_inst_mult_87_n252
*825 iir_inst_mult_87_n251
*826 iir_inst_mult_87_n250
*827 iir_inst_mult_87_n249
*828 iir_inst_mult_87_n248
*829 iir_inst_mult_87_n247
*830 iir_inst_mult_87_n246
*831 iir_inst_mult_87_n245
*832 iir_inst_mult_87_n244
*833 iir_inst_mult_87_n243
*834 iir_inst_mult_87_n242
*835 iir_inst_mult_87_n241
*836 iir_inst_mult_87_n240
*837 iir_inst_mult_87_n239
*838 iir_inst_mult_87_n238
*839 iir_inst_mult_87_n237
*840 iir_inst_mult_87_n236
*841 iir_inst_mult_87_n235
*842 iir_inst_mult_87_n234
*843 iir_inst_mult_87_n233
*844 iir_inst_mult_87_n232
*845 iir_inst_mult_87_n231
*846 iir_inst_mult_87_n230
*847 iir_inst_mult_87_n229
*848 iir_inst_mult_87_n228
*849 iir_inst_mult_87_n227
*850 iir_inst_mult_87_n226
*851 iir_inst_mult_87_n225
*852 iir_inst_mult_87_n224
*853 iir_inst_mult_87_n223
*854 iir_inst_mult_87_n222
*855 iir_inst_mult_87_n221
*856 iir_inst_mult_87_n220
*857 iir_inst_mult_87_n219
*858 iir_inst_mult_87_n218
*859 iir_inst_mult_87_n217
*860 iir_inst_mult_87_n216
*861 iir_inst_mult_87_n215
*862 iir_inst_mult_87_n214
*863 iir_inst_mult_87_n213
*864 iir_inst_mult_87_n212
*865 iir_inst_mult_87_n211
*866 iir_inst_mult_87_n210
*867 iir_inst_mult_87_n209
*868 iir_inst_mult_87_n208
*869 iir_inst_mult_87_n207
*870 iir_inst_mult_87_n206
*871 iir_inst_mult_87_n205
*872 iir_inst_mult_87_n204
*873 iir_inst_mult_87_n203
*874 iir_inst_mult_87_n202
*875 iir_inst_mult_87_n201
*876 iir_inst_mult_87_n200
*877 iir_inst_mult_87_n199
*878 iir_inst_mult_87_n198
*879 iir_inst_mult_87_n197
*880 iir_inst_mult_87_n196
*881 iir_inst_mult_87_n195
*882 iir_inst_mult_87_n194
*883 iir_inst_mult_87_n193
*884 iir_inst_mult_87_n192
*885 iir_inst_mult_87_n191
*886 iir_inst_mult_87_n190
*887 iir_inst_mult_87_n189
*888 iir_inst_mult_87_n188
*889 iir_inst_mult_87_n187
*890 iir_inst_mult_87_n186
*891 iir_inst_mult_87_n185
*892 iir_inst_mult_87_n184
*893 iir_inst_mult_87_n183
*894 iir_inst_mult_87_n182
*895 iir_inst_mult_87_n181
*896 iir_inst_mult_87_n180
*897 iir_inst_mult_87_n179
*898 iir_inst_mult_87_n178
*899 iir_inst_mult_87_n177
*900 iir_inst_mult_87_n176
*901 iir_inst_mult_87_n175
*902 iir_inst_mult_87_n174
*903 iir_inst_mult_87_n173
*904 iir_inst_mult_87_n172
*905 iir_inst_mult_87_n171
*906 iir_inst_mult_87_n170
*907 iir_inst_mult_87_n169
*908 iir_inst_mult_87_n168
*909 iir_inst_mult_87_n167
*910 iir_inst_mult_87_n166
*911 iir_inst_mult_87_n165
*912 iir_inst_mult_87_n164
*913 iir_inst_mult_87_n163
*914 iir_inst_mult_87_n162
*915 iir_inst_mult_87_n161
*916 iir_inst_mult_87_n160
*917 iir_inst_mult_87_n159
*918 iir_inst_mult_87_n158
*919 iir_inst_mult_87_n157
*920 iir_inst_mult_87_n156
*921 iir_inst_mult_87_n155
*922 iir_inst_mult_87_n154
*923 iir_inst_mult_87_n153
*924 iir_inst_mult_87_n152
*925 iir_inst_mult_87_n151
*926 iir_inst_mult_87_n150
*927 iir_inst_mult_87_n149
*928 iir_inst_mult_87_n148
*929 iir_inst_mult_87_n147
*930 iir_inst_mult_87_n145
*931 iir_inst_mult_87_n144
*932 iir_inst_mult_87_n143
*933 iir_inst_mult_87_n142
*934 iir_inst_mult_87_n141
*935 iir_inst_mult_87_n140
*936 iir_inst_mult_87_n139
*937 iir_inst_mult_87_n138
*938 iir_inst_mult_87_n137
*939 iir_inst_mult_87_n136
*940 iir_inst_mult_87_n135
*941 iir_inst_mult_87_n134
*942 iir_inst_mult_87_n133
*943 iir_inst_mult_87_n132
*944 iir_inst_mult_87_n131
*945 iir_inst_mult_87_n130
*946 iir_inst_mult_87_n129
*947 iir_inst_mult_87_n128
*948 iir_inst_mult_87_n127
*949 iir_inst_mult_87_n126
*950 iir_inst_mult_87_n125
*951 iir_inst_mult_87_n124
*952 iir_inst_mult_87_n123
*953 iir_inst_mult_87_n122
*954 iir_inst_mult_87_n121
*955 iir_inst_mult_87_n120
*956 iir_inst_mult_87_n119
*957 iir_inst_mult_87_n118
*958 iir_inst_mult_87_n117
*959 iir_inst_mult_87_n116
*960 iir_inst_mult_87_n115
*961 iir_inst_mult_87_n114
*962 iir_inst_mult_87_n113
*963 iir_inst_mult_87_n112
*964 iir_inst_mult_87_n111
*965 iir_inst_mult_87_n110
*966 iir_inst_mult_87_n109
*967 iir_inst_mult_87_n108
*968 iir_inst_mult_87_n107
*969 iir_inst_mult_87_n106
*970 iir_inst_mult_87_n105
*971 iir_inst_mult_87_n104
*972 iir_inst_mult_87_n103
*973 iir_inst_mult_87_n102
*974 iir_inst_mult_87_n101
*975 iir_inst_mult_87_n100
*976 iir_inst_mult_87_n99
*977 iir_inst_mult_87_n98
*978 iir_inst_mult_87_n97
*979 iir_inst_mult_87_n96
*980 iir_inst_mult_87_n95
*981 iir_inst_mult_87_n94
*982 iir_inst_mult_87_n93
*983 iir_inst_mult_87_n92
*984 iir_inst_mult_87_n91
*985 iir_inst_mult_87_n75
*986 iir_inst_mult_87_n69
*987 iir_inst_mult_87_n63
*988 iir_inst_mult_87_n62
*989 iir_inst_mult_87_n61
*990 iir_inst_mult_87_n60
*991 iir_inst_mult_87_n55
*992 iir_inst_mult_87_n53
*993 iir_inst_mult_87_n49
*994 iir_inst_mult_87_n48
*995 iir_inst_mult_87_n47
*996 iir_inst_mult_87_n44
*997 iir_inst_mult_87_n43
*998 iir_inst_mult_87_n42
*999 iir_inst_mult_87_n41
*1000 iir_inst_mult_87_n39
*1001 iir_inst_mult_87_n38
*1002 iir_inst_mult_87_n36
*1003 iir_inst_mult_87_n35
*1004 iir_inst_mult_87_n34
*1005 iir_inst_mult_87_n33
*1006 iir_inst_mult_87_n32
*1007 iir_inst_mult_87_n31
*1008 iir_inst_mult_87_n30
*1009 iir_inst_mult_87_n27
*1010 iir_inst_mult_87_n26
*1011 iir_inst_mult_87_n25
*1012 iir_inst_mult_87_n22
*1013 iir_inst_mult_87_n21
*1014 iir_inst_mult_87_n20
*1015 iir_inst_mult_87_n19
*1016 iir_inst_mult_87_n18
*1017 iir_inst_mult_87_n17
*1018 iir_inst_mult_87_n16
*1019 iir_inst_mult_87_n15
*1020 iir_inst_mult_87_n14
*1021 iir_inst_mult_87_n13
*1022 iir_inst_mult_87_n10
*1023 iir_inst_mult_87_n9
*1024 iir_inst_mult_87_n7
*1025 iir_inst_mult_87_n5
*1026 iir_inst_mult_87_n4
*1027 iir_inst_mult_87_n3
*1028 iir_inst_mult_87_n2
*1029 iir_inst_mult_85_n345
*1030 iir_inst_mult_85_n344
*1031 iir_inst_mult_85_n343
*1032 iir_inst_mult_85_n342
*1033 iir_inst_mult_85_n341
*1034 iir_inst_mult_85_n340
*1035 iir_inst_mult_85_n339
*1036 iir_inst_mult_85_n338
*1037 iir_inst_mult_85_n337
*1038 iir_inst_mult_85_n336
*1039 iir_inst_mult_85_n335
*1040 iir_inst_mult_85_n334
*1041 iir_inst_mult_85_n333
*1042 iir_inst_mult_85_n332
*1043 iir_inst_mult_85_n331
*1044 iir_inst_mult_85_n330
*1045 iir_inst_mult_85_n329
*1046 iir_inst_mult_85_n328
*1047 iir_inst_mult_85_n327
*1048 iir_inst_mult_85_n326
*1049 iir_inst_mult_85_n325
*1050 iir_inst_mult_85_n324
*1051 iir_inst_mult_85_n323
*1052 iir_inst_mult_85_n322
*1053 iir_inst_mult_85_n321
*1054 iir_inst_mult_85_n320
*1055 iir_inst_mult_85_n319
*1056 iir_inst_mult_85_n291
*1057 iir_inst_mult_85_n290
*1058 iir_inst_mult_85_n289
*1059 iir_inst_mult_85_n288
*1060 iir_inst_mult_85_n287
*1061 iir_inst_mult_85_n286
*1062 iir_inst_mult_85_n285
*1063 iir_inst_mult_85_n246
*1064 iir_inst_mult_85_n245
*1065 iir_inst_mult_85_n244
*1066 iir_inst_mult_85_n243
*1067 iir_inst_mult_85_n242
*1068 iir_inst_mult_85_n241
*1069 iir_inst_mult_85_n240
*1070 iir_inst_mult_85_n239
*1071 iir_inst_mult_85_n238
*1072 iir_inst_mult_85_n237
*1073 iir_inst_mult_85_n236
*1074 iir_inst_mult_85_n226
*1075 iir_inst_mult_85_n225
*1076 iir_inst_mult_85_n224
*1077 iir_inst_mult_85_n223
*1078 iir_inst_mult_85_n222
*1079 iir_inst_mult_85_n221
*1080 iir_inst_mult_85_n220
*1081 iir_inst_mult_85_n219
*1082 iir_inst_mult_85_n218
*1083 iir_inst_mult_85_n217
*1084 iir_inst_mult_85_n216
*1085 iir_inst_mult_85_n215
*1086 iir_inst_mult_85_n214
*1087 iir_inst_mult_85_n213
*1088 iir_inst_mult_85_n212
*1089 iir_inst_mult_85_n211
*1090 iir_inst_mult_85_n210
*1091 iir_inst_mult_85_n209
*1092 iir_inst_mult_85_n208
*1093 iir_inst_mult_85_n207
*1094 iir_inst_mult_85_n206
*1095 iir_inst_mult_85_n205
*1096 iir_inst_mult_85_n204
*1097 iir_inst_mult_85_n203
*1098 iir_inst_mult_85_n202
*1099 iir_inst_mult_85_n201
*1100 iir_inst_mult_85_n200
*1101 iir_inst_mult_85_n199
*1102 iir_inst_mult_85_n198
*1103 iir_inst_mult_85_n197
*1104 iir_inst_mult_85_n196
*1105 iir_inst_mult_85_n195
*1106 iir_inst_mult_85_n194
*1107 iir_inst_mult_85_n193
*1108 iir_inst_mult_85_n192
*1109 iir_inst_mult_85_n191
*1110 iir_inst_mult_85_n190
*1111 iir_inst_mult_85_n189
*1112 iir_inst_mult_85_n188
*1113 iir_inst_mult_85_n187
*1114 iir_inst_mult_85_n186
*1115 iir_inst_mult_85_n185
*1116 iir_inst_mult_85_n184
*1117 iir_inst_mult_85_n183
*1118 iir_inst_mult_85_n182
*1119 iir_inst_mult_85_n181
*1120 iir_inst_mult_85_n180
*1121 iir_inst_mult_85_n179
*1122 iir_inst_mult_85_n177
*1123 iir_inst_mult_85_n176
*1124 iir_inst_mult_85_n175
*1125 iir_inst_mult_85_n174
*1126 iir_inst_mult_85_n173
*1127 iir_inst_mult_85_n172
*1128 iir_inst_mult_85_n171
*1129 iir_inst_mult_85_n170
*1130 iir_inst_mult_85_n169
*1131 iir_inst_mult_85_n167
*1132 iir_inst_mult_85_n166
*1133 iir_inst_mult_85_n165
*1134 iir_inst_mult_85_n164
*1135 iir_inst_mult_85_n163
*1136 iir_inst_mult_85_n162
*1137 iir_inst_mult_85_n161
*1138 iir_inst_mult_85_n160
*1139 iir_inst_mult_85_n158
*1140 iir_inst_mult_85_n157
*1141 iir_inst_mult_85_n156
*1142 iir_inst_mult_85_n155
*1143 iir_inst_mult_85_n154
*1144 iir_inst_mult_85_n153
*1145 iir_inst_mult_85_n152
*1146 iir_inst_mult_85_n151
*1147 iir_inst_mult_85_n150
*1148 iir_inst_mult_85_n149
*1149 iir_inst_mult_85_n148
*1150 iir_inst_mult_85_n147
*1151 iir_inst_mult_85_n145
*1152 iir_inst_mult_85_n142
*1153 iir_inst_mult_85_n139
*1154 iir_inst_mult_85_n136
*1155 iir_inst_mult_85_n135
*1156 iir_inst_mult_85_n134
*1157 iir_inst_mult_85_n133
*1158 iir_inst_mult_85_n132
*1159 iir_inst_mult_85_n131
*1160 iir_inst_mult_85_n130
*1161 iir_inst_mult_85_n129
*1162 iir_inst_mult_85_n128
*1163 iir_inst_mult_85_n127
*1164 iir_inst_mult_85_n126
*1165 iir_inst_mult_85_n125
*1166 iir_inst_mult_85_n124
*1167 iir_inst_mult_85_n123
*1168 iir_inst_mult_85_n122
*1169 iir_inst_mult_85_n121
*1170 iir_inst_mult_85_n120
*1171 iir_inst_mult_85_n119
*1172 iir_inst_mult_85_n118
*1173 iir_inst_mult_85_n117
*1174 iir_inst_mult_85_n116
*1175 iir_inst_mult_85_n115
*1176 iir_inst_mult_85_n114
*1177 iir_inst_mult_85_n113
*1178 iir_inst_mult_85_n112
*1179 iir_inst_mult_85_n111
*1180 iir_inst_mult_85_n110
*1181 iir_inst_mult_85_n109
*1182 iir_inst_mult_85_n108
*1183 iir_inst_mult_85_n107